dih2o.xyz
 OpenBabel01191919363D

  6  4  0  0  0  0  0  0  0  0999 V2000
   -3.5518    1.7806   -1.0283 O   0  0  0  0  0  0  0  0  0  0  0  0
   -3.4141    2.1848   -1.8769 H   0  0  0  0  0  0  0  0  0  0  0  0
   -2.8747    2.0784   -0.4318 H   0  0  0  0  0  0  0  0  0  0  0  0
   -1.1073    3.5738   -1.7063 O   0  0  0  0  0  0  0  0  0  0  0  0
   -1.0513    4.5125   -1.8422 H   0  0  0  0  0  0  0  0  0  0  0  0
   -0.2507    3.1844   -1.8401 H   0  0  0  0  0  0  0  0  0  0  0  0
  1  3  1  0  0  0  0
  2  1  1  0  0  0  0
  5  4  1  0  0  0  0
  6  4  1  0  0  0  0
M  END
$$$$
